# CIF file generated by openbabel 2.4.1, see http://openbabel.sf.net
data_I
_chemical_name_common 'CHA'
_cell_length_a 13.675
_cell_length_b 13.675
_cell_length_c 14.767
_cell_angle_alpha 90
_cell_angle_beta 90
_cell_angle_gamma 120
_space_group_name_H-M_alt 'P 1'
_space_group_name_Hall 'P 1'
loop_
    _symmetry_equiv_pos_as_xyz
    x,y,z
loop_
    _atom_site_label
    _atom_site_type_symbol
    _atom_site_fract_x
    _atom_site_fract_y
    _atom_site_fract_z
    _atom_site_occupancy
    O1      O    0.90200   0.09800   0.12270   1.000
    O2      O    0.97670   0.31010   0.16670   1.000
    O3      O    0.12030   0.24050   0.13150   1.000
    O4      O    0.00000   0.25770   0.00000   1.000
    T1      Si   0.99970   0.22640   0.10510   1.000
    T1      Si   0.77360   0.77330   0.10510   1.000
    T1      Si   0.22670   0.00030   0.10510   1.000
    T1      Si   0.22640   0.99970   0.89490   1.000
    T1      Si   0.77330   0.77360   0.89490   1.000
    T1      Si   0.00030   0.22670   0.89490   1.000
    T1      Si   0.00030   0.77360   0.89490   1.000
    T1      Si   0.22640   0.22670   0.89490   1.000
    T1      Si   0.77330   0.99970   0.89490   1.000
    T1      Si   0.77360   0.00030   0.10510   1.000
    T1      Si   0.22670   0.22640   0.10510   1.000
    T1      Si   0.99970   0.77330   0.10510   1.000
    T1      Si   0.66637   0.55973   0.43843   1.000
    T1      Si   0.44027   0.10663   0.43843   1.000
    T1      Si   0.89337   0.33363   0.43843   1.000
    T1      Si   0.89307   0.33303   0.22823   1.000
    T1      Si   0.43997   0.10693   0.22823   1.000
    T1      Si   0.66697   0.56003   0.22823   1.000
    T1      Si   0.66697   0.10693   0.22823   1.000
    T1      Si   0.89307   0.56003   0.22823   1.000
    T1      Si   0.43997   0.33303   0.22823   1.000
    T1      Si   0.44027   0.33363   0.43843   1.000
    T1      Si   0.89337   0.55973   0.43843   1.000
    T1      Si   0.66637   0.10663   0.43843   1.000
    T1      Si   0.33303   0.89307   0.77177   1.000
    T1      Si   0.10693   0.43997   0.77177   1.000
    T1      Si   0.56003   0.66697   0.77177   1.000
    T1      Si   0.55973   0.66637   0.56157   1.000
    T1      Si   0.10663   0.44027   0.56157   1.000
    T1      Si   0.33363   0.89337   0.56157   1.000
    T1      Si   0.33363   0.44027   0.56157   1.000
    T1      Si   0.55973   0.89337   0.56157   1.000
    T1      Si   0.10663   0.66637   0.56157   1.000
    T1      Si   0.10693   0.66697   0.77177   1.000
    T1      Si   0.56003   0.89307   0.77177   1.000
    T1      Si   0.33303   0.43997   0.77177   1.000
    O3      O    0.75950   0.87980   0.13150   1.000
    O3      O    0.12020   0.87970   0.13150   1.000
    O3      O    0.24050   0.12030   0.86850   1.000
    O3      O    0.87980   0.75950   0.86850   1.000
    O3      O    0.87970   0.12020   0.86850   1.000
    O3      O    0.78697   0.57383   0.46483   1.000
    O3      O    0.42617   0.21313   0.46483   1.000
    O3      O    0.78687   0.21303   0.46483   1.000
    O3      O    0.90717   0.45363   0.20183   1.000
    O3      O    0.54647   0.09283   0.20183   1.000
    O3      O    0.54637   0.45353   0.20183   1.000
    O3      O    0.45363   0.90717   0.79817   1.000
    O3      O    0.09283   0.54647   0.79817   1.000
    O3      O    0.45353   0.54637   0.79817   1.000
    O3      O    0.57383   0.78697   0.53517   1.000
    O3      O    0.21313   0.42617   0.53517   1.000
    O3      O    0.21303   0.78687   0.53517   1.000
    O1      O    0.90200   0.80400   0.12270   1.000
    O1      O    0.19600   0.09800   0.12270   1.000
    O1      O    0.09800   0.90200   0.87730   1.000
    O1      O    0.80400   0.90200   0.87730   1.000
    O1      O    0.09800   0.19600   0.87730   1.000
    O1      O    0.56867   0.43133   0.45603   1.000
    O1      O    0.56867   0.13733   0.45603   1.000
    O1      O    0.86267   0.43133   0.45603   1.000
    O1      O    0.76467   0.23533   0.21063   1.000
    O1      O    0.47067   0.23533   0.21063   1.000
    O1      O    0.76467   0.52933   0.21063   1.000
    O1      O    0.23533   0.76467   0.78937   1.000
    O1      O    0.23533   0.47067   0.78937   1.000
    O1      O    0.52933   0.76467   0.78937   1.000
    O1      O    0.43133   0.56867   0.54397   1.000
    O1      O    0.13733   0.56867   0.54397   1.000
    O1      O    0.43133   0.86267   0.54397   1.000
    O4      O    0.74230   0.74230   0.00000   1.000
    O4      O    0.25770   0.00000   0.00000   1.000
    O4      O    0.00000   0.74230   0.00000   1.000
    O4      O    0.25770   0.25770   0.00000   1.000
    O4      O    0.74230   0.00000   0.00000   1.000
    O4      O    0.66667   0.59103   0.33333   1.000
    O4      O    0.40897   0.07563   0.33333   1.000
    O4      O    0.92437   0.33333   0.33333   1.000
    O4      O    0.66667   0.07563   0.33333   1.000
    O4      O    0.92437   0.59103   0.33333   1.000
    O4      O    0.40897   0.33333   0.33333   1.000
    O4      O    0.33333   0.92437   0.66667   1.000
    O4      O    0.07563   0.40897   0.66667   1.000
    O4      O    0.59103   0.66667   0.66667   1.000
    O4      O    0.33333   0.40897   0.66667   1.000
    O4      O    0.59103   0.92437   0.66667   1.000
    O4      O    0.07563   0.66667   0.66667   1.000
    O2      O    0.68990   0.66660   0.16670   1.000
    O2      O    0.33340   0.02330   0.16670   1.000
    O2      O    0.31010   0.97670   0.83330   1.000
    O2      O    0.66660   0.68990   0.83330   1.000
    O2      O    0.02330   0.33340   0.83330   1.000
    O2      O    0.02330   0.68990   0.83330   1.000
    O2      O    0.31010   0.33340   0.83330   1.000
    O2      O    0.66660   0.97670   0.83330   1.000
    O2      O    0.68990   0.02330   0.16670   1.000
    O2      O    0.33340   0.31010   0.16670   1.000
    O2      O    0.97670   0.66660   0.16670   1.000
    O2      O    0.64337   0.64343   0.50003   1.000
    O2      O    0.35657   0.99993   0.50003   1.000
    O2      O    0.00007   0.35663   0.50003   1.000
    O2      O    0.35657   0.35663   0.50003   1.000
    O2      O    0.00007   0.64343   0.50003   1.000
    O2      O    0.64337   0.99993   0.50003   1.000
